* LVS netlist generated with ICnet by 'adn33' on Mon Apr 23 2018 at 22:50:13

*
* Globals.
*
.global GND VDD

*
* Component pathname : /home/adn33/adn33/EECS315_Lab3/nand
*
.subckt nand  Out A0 A1

        MN2 N$3 A1 GND GND n L=2u W=5u
        MN1 Out A0 N$3 GND n L=2u W=5u
        MP2 Out A1 VDD VDD p L=2u W=5u
        MP1 Out A0 VDD VDD p L=2u W=5u
.ends nand

